ID BAR,TEST
SOL 1
DIAG 14,8
ALTER 94
MATPRN UGV,,,, // $
ENDALTER
CEND
TITLE=CHECK OUT BAR ELEMENT                                                     
SPC = 101                                                                       
DISP = ALL
SPCF = ALL
ELFORCE = ALL
STRESS = ALL                                                                      
SUBCASE 1                                                                       
LOAD = 201                                                                      
SUBCASE 2                                                                       
LOAD = 202                                                                      
SUBCASE 3                                                                       
LOAD = 203                                                                      
BEGIN BULK                                                                 
GRID,1,0,0.,0.,0.
GRID,2,0,10.,0.,0.
CBAR,1,10,1,2,0.,0.,1.
PBAR,10,30,1.,1.,1.
MAT1,30,3.E7,,.3,.00287
SPC1,101,4,1,2
SPC1,101,123456,2
FORCE,201,1,0,1.,1.,0.,0.
FORCE,202,1,0,1.,0.,1.,0.
FORCE,203,1,0,1.,0.,0.,1.
PARAM,GRDPNT,0
ENDDATA

