ID CQUAD4,TEST
SOL 1,1
DIAG 14,8
CEND
TITLE=BEAM WITH CQUAD4 ELEMENTS UNDER PURE BENDING
SPC = 1
DISP = ALL
SPCF = ALL
ELFORCE = ALL
STRESS(BILIN) = ALL
GPFORCE = ALL
SUBCASE 1
LOAD = 2
BEGIN BULK
PARAM,GRDPNT,0
PARAM,AUTOSPC,1
PSHELL   1       1      1.       1               1
CQUAD4   1       1       1       2       13      12
CQUAD4   2       1       2       3       14      13
CQUAD4   3       1       3       4       15      14
CQUAD4   4       1       4       5       16      15
CQUAD4   5       1       5       6       17      16
CQUAD4   6       1       6       7       18      17
CQUAD4   7       1       7       8       19      18
CQUAD4   8       1       8       9       20      19
CQUAD4   9       1       9       10      21      20
CQUAD4   10      1       10      11      22      21
MAT1     1      1000.           .3      1.-9
GRID     1               0.      0.      0.
GRID     2              10.      0.      0.
GRID     3              20.      0.      0.
GRID     4              30.      0.      0.
GRID     5              40.      0.      0.
GRID     6              50.      0.      0.
GRID     7              60.      0.      0.
GRID     8              70.      0.      0.
GRID     9              80.      0.      0.
GRID     10             90.      0.      0.
GRID     11             100.     0.      0.
GRID     12              0.     10.      0.
GRID     13             10.     10.      0.
GRID     14             20.     10.      0.
GRID     15             30.     10.      0.
GRID     16             40.     10.      0.
GRID     17             50.     10.      0.
GRID     18             60.     10.      0.
GRID     19             70.     10.      0.
GRID     20             80.     10.      0.
GRID     21             90.     10.      0.
GRID     22             100.    10.      0.
SPC1     1       1235    1
SPC1     1       13      12
FORCE    2       22      0      1.      1.       0.      0.
FORCE    2       11      0      1.      -1.      0.      0.
ENDDATA                                                                         
